# generated using pymatgen
data_Mn3H28C22(N9O11)2
_symmetry_space_group_name_H-M   'P 1'
_cell_length_a   18.94921376
_cell_length_b   19.93648021
_cell_length_c   19.56136635
_cell_angle_alpha   87.04201681
_cell_angle_beta   88.00142553
_cell_angle_gamma   89.29356110
_symmetry_Int_Tables_number   1
_chemical_formula_structural   Mn3H28C22(N9O11)2
_chemical_formula_sum   'Mn3 H28 C22 N18 O22'
_cell_volume   7375.15942132
_cell_formula_units_Z   1
loop_
 _symmetry_equiv_pos_site_id
 _symmetry_equiv_pos_as_xyz
  1  'x, y, z'
loop_
 _atom_site_type_symbol
 _atom_site_label
 _atom_site_symmetry_multiplicity
 _atom_site_fract_x
 _atom_site_fract_y
 _atom_site_fract_z
 _atom_site_occupancy
  N  N0  1  0.64608082  -0.04641985  -0.04368164  1
  N  N1  1  0.72355079  -0.05498223  -0.04173849  1
  C  C2  1  0.78248270  -0.05523615  -0.08260116  1
  O  O3  1  0.75541422  -0.01360021  -0.01224429  1
  C  C4  1  0.58907178  -0.06179821  -0.08121966  1
  N  N5  1  0.77647127  -0.01072642  -0.14437071  1
  H  H6  1  0.79229205  -0.03805841  -0.18670352  1
  H  H7  1  0.72562702  0.00821816  -0.15236989  1
  C  C8  1  0.87110852  -0.07143175  -0.06919311  1
  N  N9  1  0.44277638  -0.06450430  -0.08334615  1
  N  N10  1  0.37109136  -0.06821409  -0.05244338  1
  C  C11  1  0.31242964  -0.03125317  -0.05983588  1
  O  O12  1  0.35715374  -0.06334562  0.00866567  1
  C  C13  1  0.50520408  -0.04978704  -0.05404828  1
  N  N14  1  0.32432360  0.04080157  -0.07057088  1
  H  H15  1  0.36733459  0.05552658  -0.04285940  1
  H  H16  1  0.33570866  0.05089268  -0.12265721  1
  C  C17  1  0.22857322  -0.05807236  -0.06862776  1
  N  N18  1  0.02136305  -0.65848644  -0.00635375  1
  N  N19  1  -0.00560705  -0.72960737  -0.01846093  1
  C  C20  1  -0.00796190  -0.80206751  0.01665455  1
  O  O21  1  0.02732406  -0.75963709  -0.06052203  1
  C  C22  1  0.00485944  -0.59091809  -0.03513496  1
  N  N23  1  0.04404161  -0.79277970  0.07276113  1
  H  H24  1  0.09614052  -0.80642355  0.06070674  1
  H  H25  1  0.03148781  -0.76170396  0.11292020  1
  C  C26  1  -0.02732459  -0.88220337  0.00751585  1
  N  N27  1  0.02483769  -0.43897354  -0.06546004  1
  N  N28  1  0.03866847  -0.36201728  -0.07832461  1
  C  C29  1  0.08520692  -0.30541743  -0.07893043  1
  O  O30  1  0.02164892  -0.33642612  -0.13204076  1
  C  C31  1  0.03867885  -0.51375022  -0.03381308  1
  N  N32  1  0.15526226  -0.33393950  -0.09099683  1
  H  H33  1  0.15852778  -0.35376402  -0.13957083  1
  H  H34  1  0.16699066  -0.36982297  -0.05232257  1
  C  C35  1  0.09746592  -0.22323124  -0.10805374  1
  N  N36  1  0.09232406  -0.02793627  -0.65325433  1
  N  N37  1  0.08630510  -0.01871632  -0.72909333  1
  C  C38  1  0.11639834  -0.00632227  -0.79425191  1
  O  O39  1  0.04735826  0.02582065  -0.74641582  1
  C  C40  1  0.13944434  -0.03962111  -0.60172446  1
  N  N41  1  0.17802634  0.03780708  -0.79345064  1
  H  H42  1  0.22308271  0.01307861  -0.81270768  1
  H  H43  1  0.18897905  0.05217360  -0.74428062  1
  C  C44  1  0.07631453  0.00191773  -0.87504999  1
  N  N45  1  0.07276491  -0.04295935  -0.46580372  1
  N  N46  1  0.07123026  -0.06622635  -0.39254075  1
  C  C47  1  0.03878306  -0.04242449  -0.33456804  1
  O  O48  1  0.03360861  -0.11421068  -0.37903352  1
  C  C49  1  0.12747689  -0.05008906  -0.51404863  1
  N  N50  1  -0.01691565  0.00709397  -0.34941122  1
  H  H51  1  0.00657481  0.05372355  -0.36147569  1
  H  H52  1  -0.04761018  -0.00642134  -0.38977828  1
  C  C53  1  0.04506341  -0.06939363  -0.24878884  1
  O  O54  1  0.00119690  0.03713500  -0.01963452  1
  Mn  Mn55  1  0.04692227  -0.04532196  -0.06393470  1
  Mn  Mn56  1  0.14755011  -0.10444223  -0.17156733  1
  O  O57  1  0.21294670  -0.06668007  -0.24676591  1
  O  O58  1  -0.01497208  -0.11433612  0.01770248  1
  Mn  Mn59  1  -0.05985798  -0.01327080  0.04616860  1
  O  O60  1  0.01779590  -0.04423043  -0.18247841  1
  O  O61  1  0.07264776  -0.04497736  0.05198894  1
  O  O62  1  0.08677052  -0.11457295  -0.24211309  1
  O  O63  1  -0.00705337  -0.01124581  0.12608375  1
  O  O64  1  0.14704136  -0.20664897  -0.15962374  1
  O  O65  1  -0.06684214  0.08889970  0.05045746  1
  O  O66  1  0.13184066  0.00243838  -0.17078884  1
  O  O67  1  -0.11428503  -0.08940371  0.09763842  1
  O  O68  1  0.22353068  -0.10335266  -0.10793067  1
  O  O69  1  -0.14052990  -0.00827669  -0.00716184  1
  O  O70  1  0.16320262  -0.02439627  -0.04998785  1
  O  O71  1  -0.06930490  -0.06283359  -0.07570071  1
  O  O72  1  0.08425015  -0.13910996  -0.09961374  1
  C  C73  1  0.08567287  0.05927721  -0.15270173  1
  H  H74  1  0.07455294  0.09358400  -0.19771571  1
  H  H75  1  0.02960475  0.04936590  -0.13507487  1
  H  H76  1  0.10508078  0.08803985  -0.11002108  1
  C  C77  1  0.28634805  -0.06994191  -0.24290930  1
  H  H78  1  0.30993003  -0.01858009  -0.24972875  1
  H  H79  1  0.30440693  -0.09145778  -0.19408265  1
  H  H80  1  0.30578722  -0.09993812  -0.28548197  1
  C  C81  1  0.04485813  -0.15820775  0.03824570  1
  H  H82  1  0.09874360  -0.14110021  0.01806576  1
  H  H83  1  0.04733849  -0.20590711  0.01196321  1
  H  H84  1  0.04764406  -0.16867969  0.09407158  1
  C  C85  1  -0.17442588  -0.10597814  0.13916771  1
  H  H86  1  -0.15912772  -0.11445857  0.19293253  1
  H  H87  1  -0.21975968  -0.07245522  0.12877456  1
  H  H88  1  -0.19314137  -0.15837526  0.12817408  1
  H  H89  1  0.20078726  -0.01853945  -0.25986191  1
  H  H90  1  -0.04872394  -0.14818270  0.00393313  1
  H  H91  1  0.10980173  -0.02353829  -0.13601400  1
  H  H92  1  -0.12969241  -0.11219978  0.05686671  1
