# generated using pymatgen
data_Mn3H34C28(N3O11)2
_symmetry_space_group_name_H-M   'P 1'
_cell_length_a   14.93724013
_cell_length_b   15.21512467
_cell_length_c   14.93756865
_cell_angle_alpha   88.98214684
_cell_angle_beta   86.71331011
_cell_angle_gamma   94.72161115
_symmetry_Int_Tables_number   1
_chemical_formula_structural   Mn3H34C28(N3O11)2
_chemical_formula_sum   'Mn3 H34 C28 N6 O22'
_cell_volume   3376.94220381
_cell_formula_units_Z   1
loop_
 _symmetry_equiv_pos_site_id
 _symmetry_equiv_pos_as_xyz
  1  'x, y, z'
loop_
 _atom_site_type_symbol
 _atom_site_label
 _atom_site_symmetry_multiplicity
 _atom_site_fract_x
 _atom_site_fract_y
 _atom_site_fract_z
 _atom_site_occupancy
  O  O0  1  0.78667496  0.21502142  0.00873143  1
  N  N1  1  0.73378834  0.14481032  -0.00905424  1
  C  C2  1  0.76292074  0.06917453  -0.02675314  1
  C  C3  1  0.66858398  -0.00507696  -0.05023116  1
  C  C4  1  0.71480607  -0.08109044  -0.06110015  1
  H  H5  1  0.76175455  0.27061857  0.02000519  1
  H  H6  1  0.78659580  -0.08510081  -0.05662798  1
  H  H7  1  0.68132378  -0.14496200  -0.07266506  1
  C  C8  1  0.88114766  0.06805092  -0.02568182  1
  O  O9  1  0.51773471  0.13590826  0.04441143  1
  N  N10  1  0.44537126  0.08998704  0.01910938  1
  C  C11  1  0.44661530  0.02153306  -0.03047814  1
  C  C12  1  0.55340127  -0.01670961  -0.06070662  1
  C  C13  1  0.53529104  -0.08279585  -0.11856043  1
  H  H14  1  0.57647636  0.12909845  0.01753519  1
  H  H15  1  0.46990166  -0.10454870  -0.13781166  1
  H  H16  1  0.58400636  -0.11928324  -0.15440803  1
  C  C17  1  0.33563376  -0.01779254  -0.05183545  1
  O  O18  1  0.20977847  -0.58684946  0.00292932  1
  N  N19  1  0.15388037  -0.65788359  0.01122193  1
  C  C20  1  0.06975857  -0.66112856  -0.00280812  1
  C  C21  1  0.02627775  -0.56278303  -0.02552139  1
  C  C22  1  -0.05655397  -0.57913157  -0.05458690  1
  H  H23  1  0.27038971  -0.58946669  0.02180605  1
  H  H24  1  -0.09870888  -0.52766836  -0.07061283  1
  H  H25  1  -0.08527727  -0.64645728  -0.06245372  1
  C  C26  1  0.02735717  -0.76719638  0.01303641  1
  O  O27  1  -0.03468033  -0.42152426  -0.17181359  1
  N  N28  1  -0.00674328  -0.35003075  -0.12966777  1
  C  C29  1  0.04255913  -0.34992807  -0.06141167  1
  C  C30  1  0.06510102  -0.45168520  -0.01685157  1
  C  C31  1  0.12119553  -0.43899183  0.04951555  1
  H  H32  1  0.00496877  -0.46817364  -0.18321114  1
  H  H33  1  0.13808099  -0.49249251  0.09226580  1
  H  H34  1  0.14833341  -0.37352486  0.06636750  1
  C  C35  1  0.09172823  -0.25741018  -0.05647797  1
  O  O36  1  0.14912358  0.10224778  -0.60954714  1
  N  N37  1  0.11735283  0.06629359  -0.68163618  1
  C  C38  1  0.08058489  -0.01334955  -0.68402386  1
  C  C39  1  0.06711007  -0.06869671  -0.58206500  1
  C  C40  1  0.04287661  -0.15420690  -0.59370138  1
  H  H41  1  0.17206910  0.16353507  -0.61209924  1
  H  H42  1  0.03571918  -0.18018663  -0.66061100  1
  H  H43  1  0.02862236  -0.19979214  -0.53719508  1
  C  C44  1  0.04949306  -0.02692756  -0.79184773  1
  O  O45  1  0.17841422  -0.17954443  -0.47097550  1
  N  N46  1  0.15158024  -0.15483065  -0.39033723  1
  C  C47  1  0.10550439  -0.08793439  -0.37216302  1
  C  C48  1  0.07300587  -0.03758742  -0.46937835  1
  C  C49  1  0.04352920  0.04172780  -0.45389717  1
  H  H50  1  0.20023037  -0.13744578  -0.51800595  1
  H  H51  1  0.04245840  0.06867100  -0.38722059  1
  H  H52  1  0.01802630  0.08046952  -0.50711379  1
  C  C53  1  0.10831412  -0.07754718  -0.25431673  1
  O  O54  1  0.03538249  0.12380829  -0.00498560  1
  Mn  Mn55  1  0.07191089  -0.01152913  -0.02236398  1
  Mn  Mn56  1  0.22166252  -0.13637746  -0.10130813  1
  O  O57  1  0.22753606  -0.12721216  0.04136573  1
  O  O58  1  0.09840719  0.14030783  0.13747816  1
  Mn  Mn59  1  -0.03888988  0.10991659  0.11541707  1
  O  O60  1  0.06751252  -0.01995415  -0.18500367  1
  O  O61  1  0.08736992  -0.01441803  0.13565920  1
  O  O62  1  0.16527245  -0.12632378  -0.22194534  1
  O  O63  1  -0.01518505  0.06027116  0.22611351  1
  O  O64  1  0.17831659  -0.25009542  -0.07814423  1
  O  O65  1  -0.02248864  0.22498443  0.06841602  1
  O  O66  1  0.21390522  0.00742533  -0.15470684  1
  O  O67  1  -0.05752815  -0.03832948  0.11499759  1
  O  O68  1  0.32885212  -0.07991575  -0.10624512  1
  O  O69  1  -0.15260459  0.06875593  0.05937742  1
  O  O70  1  0.23194298  0.00933831  -0.01450909  1
  O  O71  1  -0.08295865  -0.02387365  -0.03831795  1
  O  O72  1  0.09670832  -0.14720899  -0.05036851  1
  C  C73  1  0.23529862  0.10046843  -0.15164259  1
  H  H74  1  0.30830968  0.11873388  -0.14588890  1
  H  H75  1  0.21503820  0.13132535  -0.21472242  1
  H  H76  1  0.19448337  0.12844751  -0.09667750  1
  C  C77  1  0.30266125  -0.17358342  0.06088882  1
  H  H78  1  0.35778739  -0.12671641  0.08224957  1
  H  H79  1  0.28604810  -0.22227096  0.11722332  1
  H  H80  1  0.32572119  -0.21052236  0.00175433  1
  C  C81  1  0.10702621  0.22005711  0.18403186  1
  H  H82  1  0.15974015  0.21675277  0.23293546  1
  H  H83  1  0.12612980  0.27686967  0.13702657  1
  H  H84  1  0.04279076  0.23067864  0.22169119  1
  C  C85  1  -0.13155090  -0.07062656  0.17377103  1
  H  H86  1  -0.16619892  -0.01517594  0.20320441  1
  H  H87  1  -0.10797857  -0.10974242  0.22989689  1
  H  H88  1  -0.18186219  -0.11119265  0.13673975  1
  H  H89  1  0.17522582  -0.15894814  0.07543418  1
  H  H90  1  0.14903783  0.13896573  0.09142123  1
  H  H91  1  0.24878724  -0.00200852  -0.21228658  1
  H  H92  1  -0.03226819  -0.08770433  0.08168038  1
