data_5017
_audit_creation_date              2024-04-29
_audit_creation_method            'Materials Studio'
_symmetry_space_group_name_H-M    'P1'
_symmetry_Int_Tables_number       1
_symmetry_cell_setting            triclinic
loop_
_symmetry_equiv_pos_as_xyz
  x,y,z
_cell_length_a                    15.3541
_cell_length_b                    15.1865
_cell_length_c                    15.3183
_cell_angle_alpha                 81.9663
_cell_angle_beta                  87.5932
_cell_angle_gamma                 98.2504
loop_
_atom_site_label
_atom_site_type_symbol
_atom_site_fract_x
_atom_site_fract_y
_atom_site_fract_z
_atom_site_U_iso_or_equiv
_atom_site_adp_type
_atom_site_occupancy
O0     O     0.78962   0.19461  -0.01425   0.00000  Uiso   1.00
N1     N     0.73700   0.12456  -0.03095   0.00000  Uiso   1.00
C2     C     0.75989   0.04307  -0.04149   0.00000  Uiso   1.00
C3     C     0.67748  -0.03280  -0.05289   0.00000  Uiso   1.00
C4     C     0.68874  -0.11418  -0.01375   0.00000  Uiso   1.00
H5     H     0.75462   0.23641   0.01646   0.00000  Uiso   1.00
H6     H     0.75038  -0.12853   0.01292   0.00000  Uiso   1.00
H7     H     0.63318  -0.16710  -0.00769   0.00000  Uiso   1.00
C8     C     0.85055   0.02908  -0.01234   0.00000  Uiso   1.00
O9     O     0.57405   0.09741   0.00332   0.00000  Uiso   1.00
N10    N     0.49687   0.05609  -0.01631   0.00000  Uiso   1.00
C11    C     0.49031  -0.00295  -0.06977   0.00000  Uiso   1.00
C12    C     0.58214  -0.03412  -0.10016   0.00000  Uiso   1.00
C13    C     0.57264  -0.08767  -0.16315   0.00000  Uiso   1.00
H14    H     0.59351   0.14363  -0.05109   0.00000  Uiso   1.00
H15    H     0.50804  -0.10388  -0.18926   0.00000  Uiso   1.00
H16    H     0.62403  -0.12542  -0.18150   0.00000  Uiso   1.00
C17    C     0.38868  -0.01705  -0.09759   0.00000  Uiso   1.00
O18    O     0.21195  -0.61044  -0.09076   0.00000  Uiso   1.00
N19    N     0.14587  -0.67571  -0.07127   0.00000  Uiso   1.00
C20    C     0.06506  -0.67171  -0.03176   0.00000  Uiso   1.00
C21    C     0.02900  -0.56748  -0.03292   0.00000  Uiso   1.00
C22    C    -0.05901  -0.57554  -0.04230   0.00000  Uiso   1.00
H23    H     0.25808  -0.63210  -0.12934   0.00000  Uiso   1.00
H24    H    -0.09513  -0.51919  -0.04218   0.00000  Uiso   1.00
H25    H    -0.09847  -0.64111  -0.04278   0.00000  Uiso   1.00
C26    C     0.02205  -0.77115   0.00742   0.00000  Uiso   1.00
O27    O    -0.04784  -0.39329  -0.16450   0.00000  Uiso   1.00
N28    N    -0.03064  -0.35119  -0.09621   0.00000  Uiso   1.00
C29    C     0.04591  -0.35044  -0.05423   0.00000  Uiso   1.00
C30    C     0.07880  -0.45695  -0.03156   0.00000  Uiso   1.00
C31    C     0.15779  -0.45453   0.00282   0.00000  Uiso   1.00
H32    H     0.00673  -0.40928  -0.19958   0.00000  Uiso   1.00
H33    H     0.18765  -0.51536   0.01735   0.00000  Uiso   1.00
H34    H     0.19475  -0.39154   0.01375   0.00000  Uiso   1.00
C35    C     0.09411  -0.24918  -0.04874   0.00000  Uiso   1.00
O36    O     0.14293   0.11621  -0.54789   0.00000  Uiso   1.00
N37    N     0.10669   0.09041  -0.62072   0.00000  Uiso   1.00
C38    C     0.05042   0.01775  -0.62073   0.00000  Uiso   1.00
C39    C     0.03193  -0.05092  -0.53588   0.00000  Uiso   1.00
C40    C     0.00214  -0.13663  -0.54093   0.00000  Uiso   1.00
H41    H     0.19475   0.16323  -0.57114   0.00000  Uiso   1.00
H42    H    -0.00931  -0.16005  -0.60332   0.00000  Uiso   1.00
H43    H    -0.00216  -0.18690  -0.48310   0.00000  Uiso   1.00
C44    C     0.02514   0.00270  -0.71286   0.00000  Uiso   1.00
O45    O     0.21462  -0.09051  -0.50008   0.00000  Uiso   1.00
N46    N     0.17994  -0.10903  -0.41503   0.00000  Uiso   1.00
C47    C     0.11248  -0.07730  -0.38234   0.00000  Uiso   1.00
C48    C     0.05184  -0.02716  -0.44403   0.00000  Uiso   1.00
C49    C     0.01662   0.04316  -0.42066   0.00000  Uiso   1.00
H50    H     0.19564  -0.03126  -0.52460   0.00000  Uiso   1.00
H51    H     0.03328   0.07170  -0.36178   0.00000  Uiso   1.00
H52    H    -0.02567   0.07924  -0.46336   0.00000  Uiso   1.00
C53    C     0.10536  -0.08590  -0.28220   0.00000  Uiso   1.00
O54    O     0.03259   0.13351  -0.01613   0.00000  Uiso   1.00
Mn55   Mn    0.03477  -0.01114  -0.03547   0.00000  Uiso   1.00
Mn56   Mn    0.19355  -0.11306  -0.10050   0.00000  Uiso   1.00
O57    O     0.21242  -0.08312   0.01934   0.00000  Uiso   1.00
O58    O     0.11818   0.12514   0.13132   0.00000  Uiso   1.00
Mn59   Mn   -0.00478   0.09187   0.10109   0.00000  Uiso   1.00
O60    O     0.05164  -0.04761  -0.24655   0.00000  Uiso   1.00
O61    O     0.06944  -0.04577   0.25108   0.00000  Uiso   1.00
O62    O     0.16405  -0.13565  -0.22740   0.00000  Uiso   1.00
O63    O    -0.03125   0.06109   0.23636   0.00000  Uiso   1.00
O64    O     0.17967  -0.23803  -0.05625   0.00000  Uiso   1.00
O65    O    -0.01971   0.21505   0.08420   0.00000  Uiso   1.00
O66    O     0.18804   0.00658  -0.15489   0.00000  Uiso   1.00
O67    O    -0.02404  -0.03800   0.10043   0.00000  Uiso   1.00
O68    O     0.33348  -0.09234  -0.12831   0.00000  Uiso   1.00
O69    O    -0.11829   0.07494   0.05030   0.00000  Uiso   1.00
O70    O     0.34827   0.04380  -0.08274   0.00000  Uiso   1.00
O71    O    -0.09995  -0.02775  -0.04807   0.00000  Uiso   1.00
O72    O     0.06514  -0.15234  -0.06549   0.00000  Uiso   1.00
C73    C     0.17980   0.07661  -0.10549   0.00000  Uiso   1.00
H74    H     0.23682   0.13219  -0.11810   0.00000  Uiso   1.00
H75    H     0.12405   0.10959  -0.13141   0.00000  Uiso   1.00
H76    H     0.17423   0.05431  -0.03352   0.00000  Uiso   1.00
C77    C     0.28108  -0.12293   0.06174   0.00000  Uiso   1.00
H78    H     0.33407  -0.06790   0.07461   0.00000  Uiso   1.00
H79    H     0.25691  -0.16286   0.12708   0.00000  Uiso   1.00
H80    H     0.31185  -0.16955   0.02323   0.00000  Uiso   1.00
C81    C     0.12727   0.19517   0.18519   0.00000  Uiso   1.00
H82    H     0.18570   0.19450   0.22603   0.00000  Uiso   1.00
H83    H     0.13326   0.26195   0.14306   0.00000  Uiso   1.00
H84    H     0.06819   0.19399   0.23104   0.00000  Uiso   1.00
C85    C    -0.10259  -0.07623   0.15739   0.00000  Uiso   1.00
H86    H    -0.14140  -0.02390   0.18009   0.00000  Uiso   1.00
H87    H    -0.08757  -0.11958   0.21789   0.00000  Uiso   1.00
H88    H    -0.15115  -0.12026   0.12461   0.00000  Uiso   1.00
H89    H     0.15650  -0.10587   0.05524   0.00000  Uiso   1.00
H90    H     0.15590   0.07737   0.14877   0.00000  Uiso   1.00
H91    H     0.23894   0.02470  -0.19847   0.00000  Uiso   1.00
H92    H     0.02271  -0.06940   0.12471   0.00000  Uiso   1.00
loop_
_geom_bond_atom_site_label_1
_geom_bond_atom_site_label_2
_geom_bond_distance
_geom_bond_site_symmetry_2
_ccdc_geom_bond_type
O0     N1      1.303   .     S
O0     H5      1.036   .     S
N1     C2      1.363   .     D
C2     C3      1.617   .     S
C2     C8      1.514   .     S
C3     C4      1.334   .     D
C3     C12     1.659   .     S
C4     H6      1.085   .     S
C4     H7      1.076   .     S
C8     O69     1.328   1_655 D
C8     O71     1.381   1_655 S
O9     N10     1.326   .     S
O9     H14     1.016   .     S
N10    C11     1.293   .     D
C11    C12     1.621   .     S
C11    C17     1.627   .     S
C12    C13     1.346   .     D
C13    H15     1.093   .     S
C13    H16     1.089   .     S
C17    O68     1.467   .     S
C17    O70     1.226   .     D
O18    N19     1.305   .     S
O18    H23     1.022   .     S
N19    C20     1.370   .     D
C20    C21     1.748   .     S
C20    C26     1.582   .     S
C21    C22     1.355   .     D
C21    C30     1.745   .     S
C22    H24     1.085   .     S
C22    H25     1.090   .     S
C26    O54     1.569   1_545 S
C26    O65     1.291   1_545 D
O27    N28     1.317   .     S
O27    H32     1.052   .     S
N28    C29     1.363   .     D
C29    C30     1.756   .     S
C29    C35     1.623   .     S
C30    C31     1.340   .     D
C31    H33     1.089   .     S
C31    H34     1.078   .     S
C35    O64     1.298   .     D
C35    O72     1.587   .     S
O36    N37     1.349   .     S
O36    H41     1.006   .     S
N37    C38     1.300   .     D
C38    C39     1.537   .     S
C38    C44     1.518   .     S
C39    C40     1.330   .     D
C39    C48     1.533   .     S
C40    H42     1.078   .     S
C40    H43     1.079   .     S
C44    O61     1.239   1_554 D
C44    O63     1.492   1_554 S
O45    N46     1.363   .     S
O45    H50     1.013   .     S
N46    C47     1.312   .     D
C47    C48     1.554   .     S
C47    C53     1.519   .     S
C48    C49     1.348   .     D
C49    H51     1.079   .     S
C49    H52     1.090   .     S
C53    O60     1.227   .     D
C53    O62     1.473   .     S
O54    C26     1.569   1_565 S
O54    Mn55    2.262   .     S
O54    Mn59    1.856   .     S
Mn55   O71     2.068   .     S
Mn55   O72     2.360   .     S
Mn56   O57     1.975   .     S
Mn56   O62     2.078   .     S
Mn56   O64     1.902   .     S
Mn56   O66     1.905   .     S
Mn56   O68     2.142   .     S
Mn56   O72     2.004   .     S
O57    C77     1.424   .     S
O57    H89     0.990   .     S
O58    Mn59    1.975   .     S
O58    C81     1.430   .     S
O58    H90     1.006   .     S
Mn59   O63     2.069   .     S
Mn59   O65     1.900   .     S
Mn59   O67     1.953   .     S
Mn59   O69     1.936   .     S
O61    C44     1.239   1_556 D
O63    C44     1.492   1_556 S
O65    C26     1.291   1_565 D
O66    C73     1.405   .     S
O66    H91     0.988   .     S
O67    C85     1.457   .     S
O67    H92     0.976   .     S
O69    C8      1.328   1_455 D
O71    C8      1.381   1_455 S
C73    H74     1.116   .     S
C73    H75     1.112   .     S
C73    H76     1.103   .     S
C77    H78     1.124   .     S
C77    H79     1.114   .     S
C77    H80     1.123   .     S
C81    H82     1.116   .     S
C81    H83     1.113   .     S
C81    H84     1.120   .     S
C85    H86     1.142   .     S
C85    H87     1.112   .     S
C85    H88     1.112   .     S
