data_test3(2)
_audit_creation_date              2024-04-29
_audit_creation_method            'Materials Studio'
_symmetry_space_group_name_H-M    'P1'
_symmetry_Int_Tables_number       1
_symmetry_cell_setting            triclinic
loop_
_symmetry_equiv_pos_as_xyz
  x,y,z
_cell_length_a                    15.3681
_cell_length_b                    15.3970
_cell_length_c                    15.4197
_cell_angle_alpha                 85.5899
_cell_angle_beta                  94.7763
_cell_angle_gamma                 96.0902
loop_
_atom_site_label
_atom_site_type_symbol
_atom_site_fract_x
_atom_site_fract_y
_atom_site_fract_z
_atom_site_U_iso_or_equiv
_atom_site_adp_type
_atom_site_occupancy
C0     C     0.71831   0.09847   0.26340   0.00000  Uiso   1.00
C1     C     0.80775   0.08898   0.26461   0.00000  Uiso   1.00
C2     C     0.82755   0.07709   0.18075   0.00000  Uiso   1.00
N3     N     0.74978   0.08197   0.12855   0.00000  Uiso   1.00
C4     C     0.68155   0.09283   0.17857   0.00000  Uiso   1.00
H5     H     0.68610   0.11759   0.31777   0.00000  Uiso   1.00
H6     H     0.85540   0.09861   0.31961   0.00000  Uiso   1.00
H7     H     0.74420   0.08566   0.06036   0.00000  Uiso   1.00
C8     C     0.92391   0.07836   0.15294   0.00000  Uiso   1.00
C9     C     0.58935   0.22080   0.14061   0.00000  Uiso   1.00
C10    C     0.50417   0.23881   0.15033   0.00000  Uiso   1.00
C11    C     0.45344   0.15939   0.16309   0.00000  Uiso   1.00
N12    N     0.50716   0.09220   0.15640   0.00000  Uiso   1.00
C13    C     0.59279   0.13082   0.14817   0.00000  Uiso   1.00
H14    H     0.64604   0.26881   0.14074   0.00000  Uiso   1.00
H15    H     0.48372   0.30348   0.15813   0.00000  Uiso   1.00
H16    H     0.49004   0.02678   0.17999   0.00000  Uiso   1.00
C17    C     0.35452   0.15247   0.18607   0.00000  Uiso   1.00
C18    C     0.06842   0.66568   0.03370   0.00000  Uiso   1.00
C19    C     0.04115   0.74210   0.00372   0.00000  Uiso   1.00
C20    C     0.05295   0.80314   0.07324   0.00000  Uiso   1.00
N21    N     0.09372   0.75477   0.15145   0.00000  Uiso   1.00
C22    C     0.09924   0.66999   0.12606   0.00000  Uiso   1.00
H23    H     0.07195   0.61180  -0.00678   0.00000  Uiso   1.00
H24    H     0.02166   0.75956  -0.06448   0.00000  Uiso   1.00
H25    H     0.09643   0.77242   0.21720   0.00000  Uiso   1.00
C26    C     0.05985   0.89031   0.04516   0.00000  Uiso   1.00
C27    C     0.14370   0.59069   0.26867   0.00000  Uiso   1.00
C28    C     0.15840   0.50569   0.29773   0.00000  Uiso   1.00
C29    C     0.14372   0.45009   0.22944   0.00000  Uiso   1.00
N30    N     0.12144   0.50114   0.15334   0.00000  Uiso   1.00
C31    C     0.12128   0.59205   0.18001   0.00000  Uiso   1.00
H32    H     0.15381   0.64583   0.30965   0.00000  Uiso   1.00
H33    H     0.18827   0.48754   0.36169   0.00000  Uiso   1.00
H34    H     0.13760   0.48400   0.09161   0.00000  Uiso   1.00
C35    C     0.16724   0.35204   0.24702   0.00000  Uiso   1.00
C36    C     0.24566   0.31682   0.80046   0.00000  Uiso   1.00
C37    C     0.24337   0.29723   0.88910   0.00000  Uiso   1.00
C38    C     0.21860   0.20878   0.90012   0.00000  Uiso   1.00
N39    N     0.20753   0.17363   0.81999   0.00000  Uiso   1.00
C40    C     0.21960   0.24063   0.75844   0.00000  Uiso   1.00
H41    H     0.25547   0.38229   0.76998   0.00000  Uiso   1.00
H42    H     0.24501   0.34475   0.93855   0.00000  Uiso   1.00
H43    H     0.17852   0.11104   0.80697   0.00000  Uiso   1.00
C44    C     0.18048   0.16962   0.98250   0.00000  Uiso   1.00
C45    C     0.20991   0.31259   0.60423   0.00000  Uiso   1.00
C46    C     0.17820   0.29026   0.52256   0.00000  Uiso   1.00
C47    C     0.13946   0.20482   0.52977   0.00000  Uiso   1.00
N48    N     0.14967   0.17254   0.61591   0.00000  Uiso   1.00
C49    C     0.19388   0.23953   0.66107   0.00000  Uiso   1.00
H50    H     0.24291   0.37601   0.61936   0.00000  Uiso   1.00
H51    H     0.18694   0.33216   0.46343   0.00000  Uiso   1.00
H52    H     0.12157   0.11248   0.64380   0.00000  Uiso   1.00
C53    C     0.09659   0.16017   0.44927   0.00000  Uiso   1.00
O54    O     0.10639   0.05945   0.11102   0.00000  Uiso   1.00
Mn55   Mn    0.10217   0.16790   0.14136   0.00000  Uiso   1.00
Mn56   Mn    0.20824   0.21158   0.29407   0.00000  Uiso   1.00
O57    O     0.28346   0.17106   0.39595   0.00000  Uiso   1.00
O58    O    -0.00394   0.19667   0.03716   0.00000  Uiso   1.00
Mn59   Mn    0.03779   0.07783   0.01867   0.00000  Uiso   1.00
O60    O     0.04053   0.09721   0.45669   0.00000  Uiso   1.00
O61    O     0.19734   0.21210   0.06182   0.00000  Uiso   1.00
O62    O     0.10206   0.20438   0.36473   0.00000  Uiso   1.00
O63    O     0.12259   0.11797  -0.03576   0.00000  Uiso   1.00
O64    O     0.22246   0.33420   0.30841   0.00000  Uiso   1.00
O65    O     0.07154  -0.03932   0.00213   0.00000  Uiso   1.00
O66    O     0.17077   0.09032   0.26249   0.00000  Uiso   1.00
O67    O    -0.04292   0.07723  -0.08163   0.00000  Uiso   1.00
O68    O     0.31574   0.22273   0.22149   0.00000  Uiso   1.00
O69    O    -0.05836   0.03735   0.08590   0.00000  Uiso   1.00
O70    O     0.30630   0.09007   0.16036   0.00000  Uiso   1.00
O71    O    -0.01120   0.12626   0.19382   0.00000  Uiso   1.00
O72    O     0.13947   0.27355   0.20194   0.00000  Uiso   1.00
C73    C     0.21233   0.02825   0.32035   0.00000  Uiso   1.00
H74    H     0.20453   0.03824   0.39030   0.00000  Uiso   1.00
H75    H     0.18632  -0.03997   0.30645   0.00000  Uiso   1.00
H76    H     0.28344   0.03390   0.31279   0.00000  Uiso   1.00
C77    C     0.37336   0.20085   0.39410   0.00000  Uiso   1.00
H78    H     0.40779   0.19524   0.46115   0.00000  Uiso   1.00
H79    H     0.40393   0.15975   0.35147   0.00000  Uiso   1.00
H80    H     0.38333   0.26894   0.36519   0.00000  Uiso   1.00
C81    C     0.00002   0.26074  -0.03378   0.00000  Uiso   1.00
H82    H    -0.05217   0.24816  -0.08826   0.00000  Uiso   1.00
H83    H    -0.01401   0.32423  -0.01073   0.00000  Uiso   1.00
H84    H     0.06695   0.27311  -0.05588   0.00000  Uiso   1.00
C85    C    -0.01113   0.09983  -0.16363   0.00000  Uiso   1.00
H86    H     0.02651   0.04717  -0.18097   0.00000  Uiso   1.00
H87    H    -0.06664   0.10857  -0.21394   0.00000  Uiso   1.00
H88    H     0.03375   0.16090  -0.16358   0.00000  Uiso   1.00
H89    H     0.26318   0.18807   0.45057   0.00000  Uiso   1.00
H90    H    -0.06887   0.18310   0.03782   0.00000  Uiso   1.00
H91    H     0.10971   0.08592   0.28236   0.00000  Uiso   1.00
H92    H    -0.09562   0.10775  -0.07143   0.00000  Uiso   1.00
loop_
_geom_bond_atom_site_label_1
_geom_bond_atom_site_label_2
_geom_bond_distance
_geom_bond_site_symmetry_2
_ccdc_geom_bond_type
C0     C1      1.396   .     S
C0     C4      1.386   .     D
C0     H5      1.083   .     S
C1     C2      1.383   .     D
C1     H6      1.082   .     S
C2     N3      1.390   .     S
C2     C8      1.573   .     S
N3     C4      1.384   .     S
N3     H7      1.045   .     S
C4     C13     1.563   .     S
C8     O69     1.314   1_655 D
C8     O71     1.321   1_655 S
C9     C10     1.389   .     S
C9     C13     1.388   .     D
C9     H14     1.081   .     S
C10    C11     1.388   .     D
C10    H15     1.093   .     S
C11    N12     1.405   .     S
C11    C17     1.580   .     S
N12    C13     1.397   .     S
N12    H16     1.058   .     S
C17    O68     1.451   .     S
C17    O70     1.220   .     D
C18    C19     1.328   .     D
C18    C22     1.467   .     S
C18    H23     1.084   .     S
C19    C20     1.467   .     S
C19    H24     1.090   .     S
C20    N21     1.496   .     S
C20    C26     1.374   .     D
N21    C22     1.404   .     S
N21    H25     1.066   .     S
C22    C31     1.460   .     D
C26    O65     1.231   1_565 D
C27    C28     1.386   .     D
C27    C31     1.381   .     S
C27    H32     1.087   .     S
C28    C29     1.397   .     S
C28    H33     1.082   .     S
C29    N30     1.400   .     D
C29    C35     1.587   .     S
N30    C31     1.489   .     S
N30    H34     1.063   .     S
C35    O64     1.252   .     D
C35    O72     1.448   .     S
C36    C37     1.379   .     S
C36    C40     1.389   .     D
C36    H41     1.080   .     S
C37    C38     1.376   .     D
C37    H42     1.094   .     S
C38    N39     1.377   .     S
C38    C44     1.501   .     S
N39    C40     1.356   .     S
N39    H43     1.045   .     S
C40    C49     1.521   .     S
C44    Mn59    2.558   1_556 S
C44    O61     1.423   1_556 S
C44    O63     1.160   1_556 D
C45    C46     1.368   .     S
C45    C49     1.386   .     D
C45    H50     1.084   .     S
C46    C47     1.386   .     D
C46    H51     1.085   .     S
C47    N48     1.384   .     S
C47    C53     1.532   .     S
N48    C49     1.376   .     S
N48    H52     1.054   .     S
C53    O60     1.232   .     D
C53    O62     1.428   .     S
O54    Mn55    1.777   .     S
O54    Mn59    1.724   .     S
Mn55   O72     1.948   .     S
Mn55   O71     2.005   .     S
Mn55   O61     2.016   .     S
Mn56   O57     1.973   .     S
Mn56   O62     2.025   .     S
Mn56   O64     1.905   .     S
Mn56   O66     1.980   .     S
Mn56   O68     2.057   .     S
Mn56   O72     1.950   .     S
O57    C77     1.411   .     S
O57    H89     0.985   .     S
O58    Mn59    2.049   .     S
O58    C81     1.416   .     S
O58    H90     0.998   .     S
Mn59   C44     2.558   1_554 S
Mn59   O63     1.648   .     S
Mn59   O65     1.970   .     S
Mn59   O67     1.900   .     S
Mn59   O69     1.899   .     S
O61    C44     1.423   1_554 S
O63    C44     1.160   1_554 D
O65    C26     1.231   1_545 D
O66    C73     1.421   .     S
O66    H91     1.005   .     S
O67    C85     1.399   .     S
O67    H92     1.007   .     S
O69    C8      1.314   1_455 D
O71    C8      1.321   1_455 S
C73    H74     1.119   .     S
C73    H75     1.114   .     S
C73    H76     1.102   .     S
C77    H78     1.123   .     S
C77    H79     1.110   .     S
C77    H80     1.108   .     S
C81    H82     1.125   .     S
C81    H83     1.113   .     S
C81    H84     1.103   .     S
C85    H86     1.105   .     S
C85    H87     1.116   .     S
C85    H88     1.106   .     S
