data_test4
_audit_creation_date              2024-04-29
_audit_creation_method            'Materials Studio'
_symmetry_space_group_name_H-M    'P1'
_symmetry_Int_Tables_number       1
_symmetry_cell_setting            triclinic
loop_
_symmetry_equiv_pos_as_xyz
  x,y,z
_cell_length_a                    13.7250
_cell_length_b                    15.2179
_cell_length_c                    15.0979
_cell_angle_alpha                 93.4516
_cell_angle_beta                  88.6012
_cell_angle_gamma                 93.9218
loop_
_atom_site_label
_atom_site_type_symbol
_atom_site_fract_x
_atom_site_fract_y
_atom_site_fract_z
_atom_site_U_iso_or_equiv
_atom_site_adp_type
_atom_site_occupancy
N1     N     0.90869   0.02393  -0.20947   0.00000  Uiso   1.00
O2     O     0.98826  -0.02421  -0.23234   0.00000  Uiso   1.00
N3     N     1.00117  -0.03081  -0.32291   0.00000  Uiso   1.00
F4     F     0.91688  -0.04299  -0.36634   0.00000  Uiso   1.00
H5     H     0.90884   0.07934  -0.24782   0.00000  Uiso   1.00
C6     C     1.05362   0.04756  -0.35402   0.00000  Uiso   1.00
C7     C     0.90311   0.03871  -0.11012   0.00000  Uiso   1.00
C8     C     0.87160  -0.05472  -0.07787   0.00000  Uiso   1.00
H9     H     0.92913  -0.10101  -0.09959   0.00000  Uiso   1.00
H10    H     0.80553  -0.08048  -0.11504   0.00000  Uiso   1.00
C11    C     0.80510   0.09474  -0.07729   0.00000  Uiso   1.00
H12    H     0.85356  -0.05314  -0.00571   0.00000  Uiso   1.00
H13    H     0.81812   0.16133  -0.10282   0.00000  Uiso   1.00
H14    H     0.80840   0.10589  -0.00322   0.00000  Uiso   1.00
H15    H     1.00890   0.08448  -0.39701   0.00000  Uiso   1.00
H16    H     1.11623   0.02572  -0.39289   0.00000  Uiso   1.00
H17    H     1.07634   0.09230  -0.29735   0.00000  Uiso   1.00
C18    C     1.01493   0.07745  -0.07338   0.00000  Uiso   1.00
N19    N     0.59241   0.16379  -0.17887   0.00000  Uiso   1.00
O20    O     0.68468   0.20101  -0.18616   0.00000  Uiso   1.00
N21    N     0.69265   0.23972  -0.26476   0.00000  Uiso   1.00
F22    F     0.76094   0.19585  -0.31181   0.00000  Uiso   1.00
H23    H     0.54228   0.21392  -0.17622   0.00000  Uiso   1.00
C24    C     0.73465   0.32948  -0.24612   0.00000  Uiso   1.00
C25    C     0.58671   0.11102  -0.09864   0.00000  Uiso   1.00
C26    C     0.59139   0.17692  -0.01427   0.00000  Uiso   1.00
H27    H     0.62295   0.14728   0.04314   0.00000  Uiso   1.00
H28    H     0.63209   0.24041  -0.02815   0.00000  Uiso   1.00
C29    C     0.68959   0.05492  -0.09922   0.00000  Uiso   1.00
H30    H     0.51832   0.19922   0.00568   0.00000  Uiso   1.00
H31    H     0.69829   0.03330  -0.17065   0.00000  Uiso   1.00
H32    H     0.67216  -0.00423  -0.06027   0.00000  Uiso   1.00
H33    H     0.70779   0.35759  -0.18128   0.00000  Uiso   1.00
H34    H     0.71082   0.37226  -0.29749   0.00000  Uiso   1.00
H35    H     0.81588   0.32986  -0.24296   0.00000  Uiso   1.00
C36    C     0.47582   0.05667  -0.10297   0.00000  Uiso   1.00
N37    N     0.12370  -0.56376  -0.00365   0.00000  Uiso   1.00
O38    O     0.17801  -0.55229   0.07073   0.00000  Uiso   1.00
N39    N     0.12585  -0.51303   0.13700   0.00000  Uiso   1.00
H40    H     0.08236  -0.51179  -0.01581   0.00000  Uiso   1.00
C41    C     0.19734  -0.46388   0.19394   0.00000  Uiso   1.00
C42    C     0.19456  -0.59141  -0.07293   0.00000  Uiso   1.00
C43    C     0.14561  -0.59242  -0.16416   0.00000  Uiso   1.00
H44    H     0.11385  -0.52772  -0.17044   0.00000  Uiso   1.00
H45    H     0.08291  -0.64367  -0.17107   0.00000  Uiso   1.00
C46    C     0.26949  -0.49196  -0.07795   0.00000  Uiso   1.00
H47    H     0.20085  -0.60446  -0.21843   0.00000  Uiso   1.00
H48    H     0.32057  -0.49994  -0.13587   0.00000  Uiso   1.00
H49    H     0.31804  -0.49588  -0.02258   0.00000  Uiso   1.00
H50    H     0.16321  -0.40979   0.23356   0.00000  Uiso   1.00
H51    H     0.25912  -0.43921   0.15431   0.00000  Uiso   1.00
H52    H     0.23300  -0.50559   0.24025   0.00000  Uiso   1.00
C53    C     0.20203  -0.70348  -0.04096   0.00000  Uiso   1.00
N54    N     0.37003  -0.29780   0.01889   0.00000  Uiso   1.00
O55    O     0.36529  -0.37050   0.06898   0.00000  Uiso   1.00
N56    N     0.44953  -0.41373   0.05070   0.00000  Uiso   1.00
F57    F     0.43779  -0.49966   0.07398   0.00000  Uiso   1.00
H58    H     0.41563  -0.31014  -0.03799   0.00000  Uiso   1.00
C59    C     0.52851  -0.37238   0.10375   0.00000  Uiso   1.00
C60    C     0.27598  -0.27810  -0.01885   0.00000  Uiso   1.00
C61    C     0.20455  -0.26196   0.06152   0.00000  Uiso   1.00
H62    H     0.22080  -0.29834   0.12376   0.00000  Uiso   1.00
H63    H     0.12711  -0.27676   0.04255   0.00000  Uiso   1.00
C64    C     0.23635  -0.37973  -0.07677   0.00000  Uiso   1.00
H65    H     0.21348  -0.19146   0.08518   0.00000  Uiso   1.00
H66    H     0.23295  -0.36445  -0.14822   0.00000  Uiso   1.00
H67    H     0.15801  -0.38493  -0.05824   0.00000  Uiso   1.00
H68    H     0.52479  -0.40000   0.17043   0.00000  Uiso   1.00
H69    H     0.59830  -0.38680   0.06872   0.00000  Uiso   1.00
H70    H     0.52378  -0.29977   0.10967   0.00000  Uiso   1.00
C71    C     0.30809  -0.17431  -0.06241   0.00000  Uiso   1.00
N72    N     0.17090  -0.00285  -0.71487   0.00000  Uiso   1.00
O73    O     0.08378   0.01519  -0.67420   0.00000  Uiso   1.00
N74    N     0.04266  -0.06356  -0.64762   0.00000  Uiso   1.00
F75    F     0.00667  -0.10805  -0.72109   0.00000  Uiso   1.00
H76    H     0.15783  -0.03969  -0.77403   0.00000  Uiso   1.00
C77    C    -0.04245  -0.04619  -0.59144   0.00000  Uiso   1.00
C78    C     0.24011   0.07555  -0.72212   0.00000  Uiso   1.00
C79    C     0.19317   0.16089  -0.68764   0.00000  Uiso   1.00
H80    H     0.17507   0.16546  -0.61597   0.00000  Uiso   1.00
H81    H     0.12478   0.16800  -0.72284   0.00000  Uiso   1.00
C82    C     0.30822   0.06285  -0.62426   0.00000  Uiso   1.00
H83    H     0.24601   0.21840  -0.69826   0.00000  Uiso   1.00
H84    H     0.36159   0.12114  -0.61826   0.00000  Uiso   1.00
H85    H     0.34701   0.00092  -0.64348   0.00000  Uiso   1.00
H86    H    -0.02579  -0.05188  -0.52190   0.00000  Uiso   1.00
H87    H    -0.09921  -0.09983  -0.60192   0.00000  Uiso   1.00
H88    H    -0.07132   0.01836  -0.60388   0.00000  Uiso   1.00
C89    C     0.25234   0.09812  -0.84124   0.00000  Uiso   1.00
N90    N     0.40524   0.08938  -0.40143   0.00000  Uiso   1.00
O91    O     0.44097   0.11501  -0.48142   0.00000  Uiso   1.00
N92    N     0.54039   0.11660  -0.48142   0.00000  Uiso   1.00
F93    F     0.57205   0.13703  -0.39817   0.00000  Uiso   1.00
H94    H     0.43371   0.03032  -0.38418   0.00000  Uiso   1.00
C95    C     0.57301   0.19011  -0.53447   0.00000  Uiso   1.00
C96    C     0.29836   0.07968  -0.40029   0.00000  Uiso   1.00
C97    C     0.26774   0.17616  -0.38935   0.00000  Uiso   1.00
H98    H     0.19126   0.18403  -0.36667   0.00000  Uiso   1.00
H99    H     0.28517   0.21458  -0.45009   0.00000  Uiso   1.00
C100   C     0.26306   0.04511  -0.51262   0.00000  Uiso   1.00
H101   H     0.31725   0.21051  -0.33781   0.00000  Uiso   1.00
H102   H     0.18887   0.06741  -0.51516   0.00000  Uiso   1.00
H103   H     0.25257  -0.02819  -0.51459   0.00000  Uiso   1.00
H104   H     0.57356   0.16788  -0.60600   0.00000  Uiso   1.00
H105   H     0.64806   0.21373  -0.51514   0.00000  Uiso   1.00
H106   H     0.52153   0.24442  -0.52393   0.00000  Uiso   1.00
C107   C     0.27695   0.03377  -0.29482   0.00000  Uiso   1.00
O108   O     0.21934   0.19623  -0.05008   0.00000  Uiso   1.00
Mn109  Mn    0.24920   0.05901  -0.07310   0.00000  Uiso   1.00
Mn110  Mn    0.36134  -0.10731  -0.18506   0.00000  Uiso   1.00
O111   O     0.45034  -0.16906  -0.26378   0.00000  Uiso   1.00
O112   O     0.08430   0.05062   0.10457   0.00000  Uiso   1.00
Mn113  Mn    0.12303   0.17070   0.05255   0.00000  Uiso   1.00
O114   O     0.24126   0.07531  -0.21868   0.00000  Uiso   1.00
O115   O     0.26169   0.04411   0.08099   0.00000  Uiso   1.00
O116   O     0.32559  -0.03569  -0.28337   0.00000  Uiso   1.00
O117   O     0.22496   0.17415   0.13773   0.00000  Uiso   1.00
O118   O     0.38811  -0.17963  -0.09874   0.00000  Uiso   1.00
O119   O     0.15103   0.28738   0.02478   0.00000  Uiso   1.00
O120   O     0.26306  -0.19525  -0.23064   0.00000  Uiso   1.00
O121   O     0.03747   0.22441   0.14335   0.00000  Uiso   1.00
O122   O     0.46701  -0.02101  -0.14253   0.00000  Uiso   1.00
O123   O     0.02352   0.15496  -0.03200   0.00000  Uiso   1.00
O124   O     0.39618   0.09431  -0.07344   0.00000  Uiso   1.00
O125   O     0.09555   0.03042  -0.08286   0.00000  Uiso   1.00
O126   O     0.26994  -0.08470  -0.09055   0.00000  Uiso   1.00
C127   C     0.17425  -0.16028  -0.25101   0.00000  Uiso   1.00
H128   H     0.11624  -0.21429  -0.26453   0.00000  Uiso   1.00
H129   H     0.18261  -0.12678  -0.31454   0.00000  Uiso   1.00
H130   H     0.14849  -0.11505  -0.19392   0.00000  Uiso   1.00
C131   C     0.54213  -0.17881  -0.22787   0.00000  Uiso   1.00
H132   H     0.53410  -0.22779  -0.17494   0.00000  Uiso   1.00
H133   H     0.59143  -0.20387  -0.28248   0.00000  Uiso   1.00
H134   H     0.57649  -0.11448  -0.20187   0.00000  Uiso   1.00
C135   C     0.06469  -0.03861   0.07357   0.00000  Uiso   1.00
H136   H     0.03488  -0.07825   0.12934   0.00000  Uiso   1.00
H137   H     0.13004  -0.06791   0.04076   0.00000  Uiso   1.00
H138   H     0.00586  -0.04704   0.02699   0.00000  Uiso   1.00
C139   C    -0.03590   0.27757   0.11539   0.00000  Uiso   1.00
H140   H    -0.09614   0.23505   0.08469   0.00000  Uiso   1.00
H141   H    -0.06643   0.31592   0.17474   0.00000  Uiso   1.00
H142   H    -0.00940   0.32711   0.06717   0.00000  Uiso   1.00
H143   H     0.46148  -0.13111  -0.31535   0.00000  Uiso   1.00
H144   H     0.04425   0.06799   0.15960   0.00000  Uiso   1.00
H145   H     0.29195  -0.22952  -0.28356   0.00000  Uiso   1.00
H146   H     0.08925   0.26665   0.17622   0.00000  Uiso   1.00
F147   F     0.09536  -0.57912   0.18709   0.00000  Uiso   1.00
loop_
_geom_bond_atom_site_label_1
_geom_bond_atom_site_label_2
_geom_bond_distance
_geom_bond_site_symmetry_2
_ccdc_geom_bond_type
N1     O2      1.382   .     S
N1     H5      1.051   .     S
N1     C7      1.504   .     S
O2     N3      1.373   .     S
N3     F4      1.340   .     S
N3     C6      1.447   .     S
C6     H15     1.106   .     S
C6     H16     1.088   .     S
C6     H17     1.099   .     S
C7     C8      1.560   .     S
C7     C11     1.690   .     S
C7     C18     1.700   .     S
C8     H9      1.124   .     S
C8     H10     1.114   .     S
C8     H12     1.111   .     S
C11    H13     1.107   .     S
C11    H14     1.123   .     S
C11    C29     1.691   .     S
C18    O123    1.300   1_655 S
C18    O125    1.358   1_655 D
N19    O20     1.356   .     S
N19    H23     1.060   .     S
N19    C25     1.491   .     S
O20    N21     1.355   .     S
N21    F22     1.351   .     S
N21    C24     1.460   .     S
C24    H33     1.109   .     S
C24    H34     1.111   .     S
C24    H35     1.117   .     S
C25    C26     1.573   .     S
C25    C29     1.699   .     S
C25    C36     1.682   .     S
C26    H27     1.111   .     S
C26    H28     1.111   .     S
C26    H30     1.110   .     S
C29    H31     1.115   .     S
C29    H32     1.114   .     S
C36    O122    1.291   .     S
C36    O124    1.324   .     D
N37    O38     1.359   .     S
N37    H40     1.032   .     S
N37    C42     1.473   .     S
O38    N39     1.350   .     S
N39    C41     1.458   .     S
N39    F147    1.333   .     S
C41    H50     1.111   .     S
C41    H51     1.085   .     S
C41    H52     1.115   .     S
C42    C43     1.546   .     S
C42    C46     1.775   .     S
C42    C53     1.810   .     S
C43    H44     1.114   .     S
C43    H45     1.124   .     S
C43    H47     1.118   .     S
C46    H48     1.114   .     S
C46    H49     1.089   .     S
C46    C64     1.796   .     S
C53    O108    1.558   1_545 S
C53    O119    1.210   1_545 D
N54    O55     1.374   .     S
N54    H58     1.065   .     S
N54    C60     1.480   .     S
O55    N56     1.383   .     S
N56    F57     1.372   .     S
N56    C59     1.449   .     S
C59    H68     1.113   .     S
C59    H69     1.112   .     S
C59    H70     1.109   .     S
C60    C61     1.560   .     S
C60    C64     1.788   .     S
C60    C71     1.771   .     S
C61    H62     1.153   .     S
C61    H63     1.112   .     S
C61    H65     1.110   .     S
C64    H66     1.120   .     S
C64    H67     1.103   .     S
C71    O118    1.221   .     D
C71    O126    1.579   .     S
N72    O73     1.368   .     S
N72    H76     1.038   .     S
N72    C78     1.481   .     S
O73    N74     1.368   .     S
N74    F75     1.350   .     S
N74    C77     1.456   .     S
C77    H86     1.090   .     S
C77    H87     1.096   .     S
C77    H88     1.112   .     S
C78    C79     1.546   .     S
C78    C82     1.795   .     S
C78    C89     1.853   .     S
C79    H80     1.104   .     S
C79    H81     1.105   .     S
C79    H83     1.114   .     S
C82    H84     1.112   .     S
C82    H85     1.133   .     S
C82    C100    1.811   .     S
C89    O115    1.400   1_554 D
C89    O117    1.300   1_554 S
N90    O91     1.361   .     S
N90    H94     1.053   .     S
N90    C96     1.464   .     S
O91    N92     1.363   .     S
N92    F93     1.351   .     S
N92    C95     1.454   .     S
C95    H104    1.112   .     S
C95    H105    1.108   .     S
C95    H106    1.125   .     S
C96    C97     1.553   .     S
C96    C100    1.813   .     S
C96    C107    1.787   .     S
C97    H98     1.108   .     S
C97    H99     1.129   .     S
C97    H101    1.126   .     S
C100   H102    1.097   .     S
C100   H103    1.114   .     S
C107   O114    1.374   .     S
C107   O116    1.310   .     D
O108   C53     1.558   1_565 S
O108   Mn109   2.162   .     S
O108   Mn113   2.050   .     S
Mn109  O114    2.233   .     S
Mn109  O115    2.363   .     S
Mn109  O124    2.052   .     S
Mn109  O125    2.131   .     S
Mn109  O126    2.224   .     S
Mn110  O111    1.934   .     S
Mn110  O116    1.984   .     S
Mn110  O118    1.816   .     S
Mn110  O120    1.942   .     S
Mn110  O122    1.981   .     S
Mn110  O126    1.908   .     S
O111   C131    1.404   .     S
O111   H143    1.000   .     S
O112   Mn113   2.064   .     S
O112   C135    1.420   .     S
O112   H144    1.017   .     S
Mn113  O117    1.919   .     S
Mn113  O119    1.861   .     S
Mn113  O121    1.961   .     S
Mn113  O123    1.886   .     S
O115   C89     1.400   1_556 D
O117   C89     1.300   1_556 S
O119   C53     1.210   1_565 D
O120   C127    1.411   .     S
O120   H145    1.015   .     S
O121   C139    1.421   .     S
O121   H146    1.040   .     S
O123   C18     1.300   1_455 S
O125   C18     1.358   1_455 D
C127   H128    1.118   .     S
C127   H129    1.113   .     S
C127   H130    1.135   .     S
C131   H132    1.124   .     S
C131   H133    1.120   .     S
C131   H134    1.111   .     S
C135   H136    1.118   .     S
C135   H137    1.120   .     S
C135   H138    1.080   .     S
C139   H140    1.108   .     S
C139   H141    1.128   .     S
C139   H142    1.116   .     S
