data_5020_mbPXoIZAGm\(2)
_audit_creation_date              2024-05-15
_audit_creation_method            'Materials Studio'
_symmetry_space_group_name_H-M    'P1'
_symmetry_Int_Tables_number       1
_symmetry_cell_setting            triclinic
loop_
_symmetry_equiv_pos_as_xyz
  x,y,z
_cell_length_a                    13.1710
_cell_length_b                    13.5840
_cell_length_c                    12.7520
_cell_angle_alpha                 96.5790
_cell_angle_beta                  97.3590
_cell_angle_gamma                 115.3910
loop_
_atom_site_label
_atom_site_type_symbol
_atom_site_fract_x
_atom_site_fract_y
_atom_site_fract_z
_atom_site_U_iso_or_equiv
_atom_site_adp_type
_atom_site_occupancy
O0     O     0.12994   0.22946   0.11942   0.00000  Uiso   1.00
Mn1    Mn    0.82768   0.78739   0.79887   0.00000  Uiso   1.00
O2     O     0.97678   0.10042   0.99992   0.00000  Uiso   1.00
Mn3    Mn    0.97007   0.94366   0.99339   0.00000  Uiso   1.00
Mn4    Mn    0.23385   0.16790   0.10207   0.00000  Uiso   1.00
C5     C     0.09111   0.03200   0.22771   0.00000  Uiso   1.00
O6     O     0.79599   0.88885   0.98940   0.00000  Uiso   1.00
O7     O     0.72797   0.85591   0.81224   0.00000  Uiso   1.00
O8     O     1.12498   1.10726   0.81496   0.00000  Uiso   1.00
O9     O     0.95501   0.91613   0.84775   0.00000  Uiso   1.00
O10    O     0.19127   0.10042   0.22095   0.00000  Uiso   1.00
O11    O     1.00480  -0.01910   0.15297   0.00000  Uiso   1.00
O12    O     0.15011   0.02855   0.00548   0.00000  Uiso   1.00
O13    O     0.32806   0.08981   0.07148   0.00000  Uiso   1.00
O14    O    -0.01330   0.80300   0.01425   0.00000  Uiso   1.00
O15    O     0.88663   0.69302   0.85368   0.00000  Uiso   1.00
C16    C     0.02601   0.18722   0.06999   0.00000  Uiso   1.00
C17    C     0.24040   0.01374   0.00923   0.00000  Uiso   1.00
C18    C     0.73520   0.89662   0.90934   0.00000  Uiso   1.00
C19    C     0.94975   0.71565   0.94538   0.00000  Uiso   1.00
C20    C     1.02788   1.04431   0.76345   0.00000  Uiso   1.00
O21    O     0.73089   0.68028   0.69098   0.00000  Uiso   1.00
O22    O     0.43893   0.38435   0.73734   0.00000  Uiso   1.00
O23    O     0.33287   0.30644   0.20504   0.00000  Uiso   1.00
O24    O     0.26645   0.23888   0.97674   0.00000  Uiso   1.00
C25    C     0.36242   0.24792   0.92903   0.00000  Uiso   1.00
H26    H     0.37646   0.30592   0.87198   0.00000  Uiso   1.00
H27    H     0.34700   0.16607   0.88580   0.00000  Uiso   1.00
H28    H     0.43874   0.27952   0.99347   0.00000  Uiso   1.00
C29    C     0.43384   0.38920   0.18082   0.00000  Uiso   1.00
H30    H     0.41417   0.41581   0.10554   0.00000  Uiso   1.00
H31    H     0.49213   0.35166   0.17197   0.00000  Uiso   1.00
H32    H     0.47462   0.46035   0.24859   0.00000  Uiso   1.00
C33    C     0.68698   0.56571   0.67967   0.00000  Uiso   1.00
H34    H     0.66996   0.52873   0.59331   0.00000  Uiso   1.00
H35    H     0.60530   0.52986   0.70912   0.00000  Uiso   1.00
H36    H     0.74790   0.54104   0.72398   0.00000  Uiso   1.00
C37    C     0.47840   0.31716   0.67955   0.00000  Uiso   1.00
H38    H     0.54891   0.31558   0.73508   0.00000  Uiso   1.00
H39    H     0.51395   0.35173   0.61046   0.00000  Uiso   1.00
H40    H     0.41040   0.23117   0.64929   0.00000  Uiso   1.00
H41    H     1.01698   0.97840   0.69661   0.00000  Uiso   1.00
H42    H     0.37547   0.38560   0.69006   0.00000  Uiso   1.00
H43    H     0.27631   0.33499   0.21358   0.00000  Uiso   1.00
H44    H     0.19543   0.19251  -0.08469   0.00000  Uiso   1.00
C45    C     0.98457   0.62828   0.97455   0.00000  Uiso   1.00
C46    C     0.92857   0.52464   0.89963   0.00000  Uiso   1.00
C47    C     0.88134   0.43700   0.83686   0.00000  Uiso   1.00
C48    C     0.83179   0.32805   0.77135   0.00000  Uiso   1.00
F49    F     0.76633   0.32161   0.67320   0.00000  Uiso   1.00
H50    H     0.96838   0.61683   1.05628   0.00000  Uiso   1.00
H51    H     0.07890   0.66459   0.98276   0.00000  Uiso   1.00
H52    H     0.89986   0.30544   0.75215   0.00000  Uiso   1.00
C53    C     0.95926   0.24925   1.10074   0.00000  Uiso   1.00
C54    C     0.88076   0.24474   1.00882   0.00000  Uiso   1.00
C55    C     0.81835   0.23916   0.92739   0.00000  Uiso   1.00
C56    C     0.75537   0.23809   0.82602   0.00000  Uiso   1.00
F57    F     0.65942   0.25379   0.83900   0.00000  Uiso   1.00
H58    H     1.01945   0.33572   1.13903   0.00000  Uiso   1.00
H59    H    -0.08631   0.21146   1.16426   0.00000  Uiso   1.00
H60    H     0.72320   0.15673   0.77151   0.00000  Uiso   1.00
C61    C     0.23811   0.91768   0.93764   0.00000  Uiso   1.00
C62    C     0.29210   0.95465   0.84875   0.00000  Uiso   1.00
C63    C     0.33905   0.99256   0.77706   0.00000  Uiso   1.00
C64    C     0.40629   1.03732   0.69839   0.00000  Uiso   1.00
F65    F     0.33943   1.04205   0.60716   0.00000  Uiso   1.00
H66    H     0.28320   0.87946  -0.01558   0.00000  Uiso   1.00
H67    H     0.14733   0.85652   0.90829   0.00000  Uiso   1.00
H68    H     0.47365   1.12309   0.73312   0.00000  Uiso   1.00
C69    C     0.66771   0.95991   0.92925   0.00000  Uiso   1.00
C70    C     0.59840   0.96298   0.83451   0.00000  Uiso   1.00
C71    C     0.54135   0.96704   0.75425   0.00000  Uiso   1.00
C72    C     0.46618   0.96886   0.66296   0.00000  Uiso   1.00
F73    F     0.38403   0.86280   0.61456   0.00000  Uiso   1.00
H74    H     0.61615   0.92555  -0.01012   0.00000  Uiso   1.00
H75    H     0.73143   1.04564   0.96895   0.00000  Uiso   1.00
H76    H     0.51324   1.00620   0.60038   0.00000  Uiso   1.00
C77    C     0.07295   0.01522   0.34046   0.00000  Uiso   1.00
C78    C     1.01046   0.07422   0.37315   0.00000  Uiso   1.00
C79    C     0.95719   0.12514   0.39438   0.00000  Uiso   1.00
C80    C     0.89398   0.18557   0.41957   0.00000  Uiso   1.00
F81    F     0.89225   0.24999   0.34179   0.00000  Uiso   1.00
H82    H     0.15654   0.04618   0.39536   0.00000  Uiso   1.00
H83    H     0.02289  -0.07442   0.33882   0.00000  Uiso   1.00
H84    H     0.80364   1.12834   0.41942   0.00000  Uiso   1.00
C85    C    -0.07066   0.07429   0.76010   0.00000  Uiso   1.00
C86    C     0.93404   0.14284   0.68124   0.00000  Uiso   1.00
C87    C     0.93984   0.19979   0.61329   0.00000  Uiso   1.00
C88    C     0.94403   0.26267   0.52902   0.00000  Uiso   1.00
F89    F     1.05565   0.33865   0.52937   0.00000  Uiso   1.00
H90    H    -0.15302  -0.00240   0.73940   0.00000  Uiso   1.00
H91    H    -0.06481   1.11642   0.84196   0.00000  Uiso   1.00
H92    H     0.89400   0.31006   0.53923   0.00000  Uiso   1.00
loop_
_geom_bond_atom_site_label_1
_geom_bond_atom_site_label_2
_geom_bond_distance
_geom_bond_site_symmetry_2
_ccdc_geom_bond_type
O0     C16     1.274   .     S
O0     Mn4     1.907   .     S
Mn1    O6      2.822   .     S
Mn1    O7      1.921   .     S
Mn1    O8      4.388   .     S
Mn1    O9      1.796   .     S
Mn1    O15     1.912   .     S
Mn1    O21     1.771   .     S
O2     Mn3     2.085   1_545 S
O2     C16     1.250   1_656 D
Mn3    O6      2.076   .     S
Mn3    O9      1.820   .     S
Mn3    O2      2.085   1_565 S
Mn3    O11     1.983   1_566 S
Mn3    O12     2.121   1_666 S
Mn3    O14     2.057   1_656 S
Mn4    O10     1.884   .     S
Mn4    O12     1.909   .     S
Mn4    O13     1.994   .     S
Mn4    O23     1.964   .     S
Mn4    O24     1.960   1_554 S
C5     O10     1.268   .     S
C5     C77     1.514   .     S
C5     O11     1.256   1_455 S
C5     H83     2.142   .     S
O6     C18     1.258   .     S
O7     C18     1.271   .     S
O8     C20     1.231   .     D
O9     C20     2.090   .     S
O11    Mn3     1.983   1_544 S
O11    C5      1.256   1_655 S
O12    C17     1.284   .     S
O12    Mn3     2.121   1_444 S
O13    C17     1.259   .     D
O14    Mn3     2.057   1_454 S
O14    C19     1.254   1_454 S
O15    C19     1.266   .     S
C16    O2      1.250   1_454 D
C16    C53     1.512   1_454 S
C17    C61     1.491   1_544 S
C18    C69     1.502   .     S
C18    H74     2.125   1_556 S
C19    C45     1.510   .     S
C19    O14     1.254   1_656 S
C19    H50     2.119   .     S
C20    C85     1.515   1_665 S
O21    H41     4.169   .     S
O21    C33     1.390   .     S
O22    H42     0.974   .     S
O22    C37     1.413   .     S
O23    H43     0.988   .     S
O23    C29     1.425   .     S
O24    C25     1.437   .     S
O24    H44     1.039   1_556 S
O24    Mn4     1.960   1_556 S
C25    H26     1.107   .     S
C25    H27     1.104   .     S
C25    H28     1.099   .     S
C29    H30     1.102   .     S
C29    H31     1.099   .     S
C29    H32     1.102   .     S
C33    H34     1.108   .     S
C33    H35     1.110   .     S
C33    H36     1.111   .     S
C37    H39     1.108   .     S
C37    H40     1.108   .     S
C37    H38     1.103   .     S
H44    O24     1.039   1_554 S
C45    C46     1.435   .     S
C45    H50     1.105   .     S
C45    H51     1.108   1_655 S
C46    C47     1.210   .     T
C47    C48     1.436   .     S
C48    F49     1.397   .     S
C48    H52     1.111   .     S
C48    C56     1.521   .     S
H51    C45     1.108   1_455 S
C53    C54     1.437   .     S
C53    H58     1.103   .     S
C53    H59     1.111   1_655 S
C53    C16     1.512   1_656 S
C54    C55     1.212   .     T
C55    C56     1.439   .     S
C56    F57     1.395   .     S
C56    H60     1.110   .     S
H59    C53     1.111   1_455 S
C61    C62     1.440   .     S
C61    H67     1.106   .     S
C61    H66     1.106   1_556 S
C61    C17     1.491   1_566 S
C62    C63     1.210   .     T
C63    C64     1.437   .     S
C64    F65     1.391   .     S
C64    H68     1.111   .     S
C64    C72     1.522   .     S
H66    C61     1.106   1_554 S
C69    C70     1.434   .     S
C69    H75     1.111   .     S
C69    H74     1.106   1_556 S
C70    C71     1.211   .     T
C71    C72     1.438   .     S
C72    F73     1.384   .     S
C72    H76     1.108   .     S
H74    C69     1.106   1_554 S
H74    C18     2.125   1_554 S
C77    H82     1.103   .     S
C77    H83     1.104   .     S
C77    C78     1.439   1_455 S
C78    C79     1.211   .     T
C78    C77     1.439   1_655 S
C79    C80     1.437   .     S
C80    F81     1.400   .     S
C80    C88     1.522   .     S
C80    H84     1.107   1_545 S
H84    C80     1.107   1_565 S
C85    H90     1.107   .     S
C85    C86     1.436   1_455 S
C85    H91     1.108   1_545 S
C85    C20     1.515   1_445 S
C86    C87     1.214   .     T
C86    C85     1.436   1_655 S
C87    C88     1.440   .     S
C88    F89     1.387   .     S
C88    H92     1.110   .     S
H91    C85     1.108   1_565 S
