# generated using pymatgen
data_Mn3H34C34(N3O8)2
_symmetry_space_group_name_H-M   'P 1'
_cell_length_a   17.34970900
_cell_length_b   17.17792971
_cell_length_c   17.17792971
_cell_angle_alpha   89.25467999
_cell_angle_beta   91.40304128
_cell_angle_gamma   88.91231742
_symmetry_Int_Tables_number   1
_chemical_formula_structural   Mn3H34C34(N3O8)2
_chemical_formula_sum   'Mn3 H34 C34 N6 O16'
_cell_volume   5116.65218794
_cell_formula_units_Z   1
loop_
 _symmetry_equiv_pos_site_id
 _symmetry_equiv_pos_as_xyz
  1  'x, y, z'
loop_
 _atom_site_type_symbol
 _atom_site_label
 _atom_site_symmetry_multiplicity
 _atom_site_fract_x
 _atom_site_fract_y
 _atom_site_fract_z
 _atom_site_occupancy
  C  C0  1  0.73856464  0.18819625  0.20909204  1
  C  C1  1  0.81869134  0.17944700  0.20155861  1
  C  C2  1  0.83741039  0.13453036  0.13817883  1
  N  N3  1  0.76026910  0.11471964  0.10675074  1
  C  C4  1  0.69640086  0.14987596  0.15019896  1
  H  H5  1  0.71682735  0.22105296  0.25675656  1
  H  H6  1  0.86021450  0.20455708  0.24163313  1
  H  H7  1  0.75234368  0.08062184  0.05747050  1
  C  C8  1  0.93750709  0.12258682  0.12778561  1
  C  C9  1  0.56797210  0.21680635  0.20634225  1
  C  C10  1  0.48732734  0.22406228  0.20746223  1
  C  C11  1  0.45007855  0.17264619  0.15703521  1
  N  N12  1  0.51807331  0.13310879  0.12291427  1
  C  C13  1  0.59330094  0.16047123  0.15396142  1
  H  H14  1  0.60284204  0.25282350  0.24310217  1
  H  H15  1  0.45944279  0.26494809  0.24541604  1
  H  H16  1  0.51362727  0.08928030  0.08166845  1
  C  C17  1  0.34641852  0.17975802  0.16375675  1
  C  C18  1  0.09289557  0.70454536  0.08886784  1
  C  C19  1  0.07896611  0.78445924  0.07501809  1
  C  C20  1  0.10386828  0.83159390  0.13728416  1
  N  N21  1  0.13622782  0.77218711  0.19046182  1
  C  C22  1  0.12770345  0.69232748  0.16095892  1
  H  H23  1  0.07880180  0.65959613  0.04792195  1
  H  H24  1  0.05323314  0.80541353  0.02049235  1
  H  H25  1  0.16180496  0.78513812  0.24429181  1
  C  C26  1  0.08724800  0.93102813  0.11582268  1
  C  C27  1  0.18973209  0.58280016  0.26278657  1
  C  C28  1  0.20185078  0.50104366  0.27328633  1
  C  C29  1  0.17050743  0.45702941  0.21091018  1
  N  N30  1  0.13829731  0.51988119  0.16157823  1
  C  C31  1  0.15057206  0.59825059  0.19295013  1
  H  H32  1  0.20887293  0.62665658  0.30329495  1
  H  H33  1  0.23174576  0.47715965  0.32450623  1
  H  H34  1  0.11018602  0.51061732  0.10828754  1
  C  C35  1  0.18438321  0.35400018  0.21980642  1
  C  C36  1  0.13786081  0.23701041  0.76725579  1
  C  C37  1  0.13466953  0.22736011  0.84958216  1
  C  C38  1  0.10723997  0.15481447  0.86854507  1
  N  N39  1  0.09302315  0.12007402  0.79155993  1
  C  C40  1  0.11367773  0.17014952  0.72601661  1
  H  H41  1  0.15661058  0.29111022  0.74284269  1
  H  H42  1  0.14984283  0.27125923  0.89171083  1
  H  H43  1  0.07180599  0.06402519  0.78518963  1
  C  C44  1  0.09500617  0.12627563  0.96503544  1
  C  C45  1  0.15587765  0.23790609  0.59226177  1
  C  C46  1  0.15982286  0.23847069  0.51064551  1
  C  C47  1  0.12620506  0.17372274  0.46548942  1
  N  N48  1  0.09928168  0.13234598  0.54725753  1
  C  C49  1  0.11825126  0.17289620  0.62129774  1
  H  H50  1  0.18142697  0.28351301  0.62577752  1
  H  H51  1  0.18851751  0.28491310  0.48063803  1
  H  H52  1  0.07091432  0.07928297  0.54577196  1
  C  C53  1  0.13482092  0.17484797  0.37053350  1
  O  O54  1  0.10852356  0.03306625  0.11598206  1
  Mn  Mn55  1  0.13832248  0.15004037  0.15662726  1
  Mn  Mn56  1  0.24927674  0.23212345  0.28115939  1
  O  O57  1  0.32595624  0.23573571  0.36905128  1
  O  O58  1  0.00355065  0.17468643  0.01988485  1
  Mn  Mn59  1  0.03091006  0.05700856  0.03547274  1
  O  O60  1  0.12492881  0.12954100  0.29525106  1
  O  O61  1  0.15083887  0.16836837  0.02270394  1
  O  O62  1  0.17097117  0.23346341  0.35649216  1
  O  O63  1  0.10351414  0.06800334  -0.04880549  1
  O  O64  1  0.23551822  0.34653951  0.27453766  1
  O  O65  1  0.05835489  -0.05508661  0.04745331  1
  O  O66  1  0.25905688  0.11245046  0.28066721  1
  O  O67  1  -0.04386706  0.03054156  -0.04883877  1
  O  O68  1  0.33066292  0.23542681  0.20570562  1
  O  O69  1  -0.05766757  0.05894510  0.10405025  1
  O  O70  1  0.27412267  0.13685809  0.14323718  1
  O  O71  1  0.00538573  0.15770721  0.16715455  1
  O  O72  1  0.17497487  0.26668069  0.20280463  1
  C  C73  1  0.26765412  0.06806196  0.35032343  1
  H  H74  1  0.26319470  0.10434518  0.40259353  1
  H  H75  1  0.22050943  0.02492427  0.35474673  1
  H  H76  1  0.32318523  0.03494576  0.35068927  1
  C  C77  1  0.38964369  0.18328759  0.36833135  1
  H  H78  1  0.38648155  0.14157513  0.41804918  1
  H  H79  1  0.39256619  0.15121485  0.31329917  1
  H  H80  1  0.44512033  0.21378478  0.37650834  1
  C  C81  1  0.03082625  0.24801304  0.04673937  1
  H  H82  1  0.05654215  0.28040125  -0.00224339  1
  H  H83  1  -0.01715441  0.28464631  0.06944284  1
  H  H84  1  0.07321847  0.24401246  0.09549896  1
  C  C85  1  -0.07827771  0.09109077  -0.09366764  1
  H  H86  1  -0.10074564  0.06696143  -0.14913449  1
  H  H87  1  -0.12725137  0.11898645  -0.06318104  1
  H  H88  1  -0.03500821  0.13375312  -0.10985998  1
  H  H89  1  0.34451881  0.28972977  0.37403658  1
  H  H90  1  -0.05300848  0.18127237  0.01635306  1
  H  H91  1  0.22901234  0.08052136  0.24346682  1
  H  H92  1  -0.08636457  0.00175986  -0.02459639  1
